Version 4
SHEET 1 1736 708
WIRE 752 -16 80 -16
WIRE 1216 -16 752 -16
WIRE 1344 -16 1216 -16
WIRE 1216 0 1216 -16
WIRE 80 96 80 -16
WIRE 208 96 144 96
WIRE 336 96 272 96
WIRE 464 96 400 96
WIRE 1216 128 1216 80
WIRE 1344 176 1344 -16
WIRE 1216 224 1216 208
WIRE 1280 224 1216 224
WIRE 752 256 752 -16
WIRE 1216 288 1216 224
WIRE 1344 320 1344 272
WIRE 1344 432 1344 384
WIRE 1648 432 1344 432
WIRE 144 480 144 96
WIRE 144 480 80 480
WIRE 272 480 272 96
WIRE 272 480 208 480
WIRE 400 480 400 96
WIRE 400 480 336 480
WIRE 1216 512 1216 368
WIRE 1648 512 1648 432
WIRE 464 656 464 480
WIRE 752 656 752 336
WIRE 752 656 464 656
WIRE 1216 656 1216 576
WIRE 1216 656 752 656
WIRE 1344 656 1344 608
WIRE 1344 656 1216 656
WIRE 1648 656 1648 592
WIRE 1648 656 1344 656
WIRE 752 688 752 656
FLAG 752 688 0
FLAG 752 -16 IN
FLAG 1344 432 BATT
FLAG 1216 224 BASE
SYMBOL diode 64 96 R0
SYMATTR InstName D1
SYMATTR Value MURS120
SYMBOL diode 64 160 R0
SYMATTR InstName D2
SYMATTR Value MURS120
SYMBOL diode 64 224 R0
SYMATTR InstName D3
SYMATTR Value MURS120
SYMBOL diode 64 288 R0
SYMATTR InstName D4
SYMATTR Value MURS120
SYMBOL diode 64 352 R0
SYMATTR InstName D5
SYMATTR Value MURS120
SYMBOL diode 64 416 R0
SYMATTR InstName D6
SYMATTR Value MURS120
SYMBOL diode 192 96 R0
SYMATTR InstName D7
SYMATTR Value MURS120
SYMBOL diode 192 160 R0
SYMATTR InstName D8
SYMATTR Value MURS120
SYMBOL diode 192 224 R0
SYMATTR InstName D9
SYMATTR Value MURS120
SYMBOL diode 192 288 R0
SYMATTR InstName D10
SYMATTR Value MURS120
SYMBOL diode 192 352 R0
SYMATTR InstName D11
SYMATTR Value MURS120
SYMBOL diode 192 416 R0
SYMATTR InstName D12
SYMATTR Value MURS120
SYMBOL diode 320 96 R0
SYMATTR InstName D13
SYMATTR Value MURS120
SYMBOL diode 320 160 R0
SYMATTR InstName D14
SYMATTR Value MURS120
SYMBOL diode 320 224 R0
SYMATTR InstName D15
SYMATTR Value MURS120
SYMBOL diode 320 288 R0
SYMATTR InstName D16
SYMATTR Value MURS120
SYMBOL diode 320 352 R0
SYMATTR InstName D17
SYMATTR Value MURS120
SYMBOL diode 320 416 R0
SYMATTR InstName D18
SYMATTR Value MURS120
SYMBOL diode 448 96 R0
SYMATTR InstName D19
SYMATTR Value MURS120
SYMBOL diode 448 160 R0
SYMATTR InstName D20
SYMATTR Value MURS120
SYMBOL diode 448 224 R0
SYMATTR InstName D21
SYMATTR Value MURS120
SYMBOL diode 448 288 R0
SYMATTR InstName D22
SYMATTR Value MURS120
SYMBOL diode 448 352 R0
SYMATTR InstName D23
SYMATTR Value MURS120
SYMBOL diode 448 416 R0
SYMATTR InstName D24
SYMATTR Value MURS120
SYMBOL current 752 336 R180
WINDOW 0 24 80 Left 2
WINDOW 3 24 0 Left 2
WINDOW 123 0 0 Left 0
WINDOW 39 0 0 Left 0
SYMATTR InstName I1
SYMATTR Value 350m
SYMBOL voltage 1344 512 R0
WINDOW 123 0 0 Left 0
WINDOW 39 0 0 Left 0
SYMATTR InstName V1
SYMATTR Value 6
SYMBOL npn 1280 176 R0
SYMATTR InstName Q1
SYMATTR Value 2N2222
SYMBOL zener 1232 576 R180
WINDOW 0 24 64 Left 2
WINDOW 3 24 0 Left 2
SYMATTR InstName D25
SYMATTR Value UDZV6_8B
SYMATTR Description Diode
SYMATTR Type diode
SYMBOL res 1200 -16 R0
SYMATTR InstName R1
SYMATTR Value 10k
SYMBOL res 1632 496 R0
SYMATTR InstName R2
SYMATTR Value 110k
SYMBOL res 1200 112 R0
SYMATTR InstName R3
SYMATTR Value {(x-1)*Rv}
SYMBOL res 1200 272 R0
SYMATTR InstName R4
SYMATTR Value {x*Rv}
SYMBOL schottky 1328 320 R0
SYMATTR InstName D26
SYMATTR Value 10MQ060N
SYMATTR Description Diode
SYMATTR Type diode
TEXT 56 608 Left 2 !.op
TEXT 64 576 Left 2 !.param Rv 1k
TEXT 64 656 Left 2 !.step param x 0.01 0.99 0.01
